data/case39_ps.m
function ps = case39_ps

ps.casename = 'case39';

ps.baseMVA = 100.000000;

ps.bus = [...
%ID type Pd Qd Gs Bs area Vmag Vang basekV zone Vmax Vmin lam_P lam_Q mu_Vx mu_Vn locX locY delta_sys 
 1 1 0 0 0 0 1 1 0 230 1 1.06 0.94 0 0 0 0 0 0 0;
 2 1 0 0 0 0 1 1 0 230 1 1.06 0.94 0 0 0 0 0 0 0;
 3 1 0 0 0 0 1 1.0341 -9.73 230 1 1.06 0.94 0 0 0 0 0 0 0;
 4 1 0 0 0 0 1 1.0116 -10.53 230 1 1.06 0.94 0 0 0 0 0 0 0;
 5 1 0 0 0 0 1 1.0165 -9.38 230 1 1.06 0.94 0 0 0 0 0 0 0;
 6 1 0 0 0 0 1 1.0172 -8.68 230 1 1.06 0.94 0 0 0 0 0 0 0;
 7 1 0 0 0 0 1 1.0067 -10.84 230 1 1.06 0.94 0 0 0 0 0 0 0;
 8 1 0 0 0 0 1 1.0057 -11.34 230 1 1.06 0.94 0 0 0 0 0 0 0;
 9 1 0 0 0 0 1 1.0322 -11.15 230 1 1.06 0.94 0 0 0 0 0 0 0;
 10 1 0 0 0 0 1 1.0235 -6.31 230 1 1.06 0.94 0 0 0 0 0 0 0;
 11 1 0 0 0 0 1 1.0201 -7.12 230 1 1.06 0.94 0 0 0 0 0 0 0;
 12 1 0 0 0 0 1 1.0072 -7.14 230 1 1.06 0.94 0 0 0 0 0 0 0;
 13 1 0 0 0 0 1 1.0207 -7.02 230 1 1.06 0.94 0 0 0 0 0 0 0;
 14 1 0 0 0 0 1 1.0181 -8.66 230 1 1.06 0.94 0 0 0 0 0 0 0;
 15 1 0 0 0 0 1 1.0194 -9.06 230 1 1.06 0.94 0 0 0 0 0 0 0;
 16 1 0 0 0 0 1 1.0346 -7.66 230 1 1.06 0.94 0 0 0 0 0 0 0;
 17 1 0 0 0 0 1 1.0365 -8.65 230 1 1.06 0.94 0 0 0 0 0 0 0;
 18 1 0 0 0 0 1 1.0343 -9.49 230 1 1.06 0.94 0 0 0 0 0 0 0;
 19 1 0 0 0 0 1 1.0509 -3.04 230 1 1.06 0.94 0 0 0 0 0 0 0;
 20 1 0 0 0 0 1 0.9914 -4.45 230 1 1.06 0.94 0 0 0 0 0 0 0;
 21 1 0 0 0 0 1 1.0337 -5.26 230 1 1.06 0.94 0 0 0 0 0 0 0;
 22 1 0 0 0 0 1 1.0509 -0.82 230 1 1.06 0.94 0 0 0 0 0 0 0;
 23 1 0 0 0 0 1 1.0459 -1.02 230 1 1.06 0.94 0 0 0 0 0 0 0;
 24 1 0 0 0 0 1 1.0399 -7.54 230 1 1.06 0.94 0 0 0 0 0 0 0;
 25 1 0 0 0 0 1 1.0587 -5.51 230 1 1.06 0.94 0 0 0 0 0 0 0;
 26 1 0 0 0 0 1 1.0536 -6.77 230 1 1.06 0.94 0 0 0 0 0 0 0;
 27 1 0 0 0 0 1 1.0399 -8.78 230 1 1.06 0.94 0 0 0 0 0 0 0;
 28 1 0 0 0 0 1 1.0509 -3.27 230 1 1.06 0.94 0 0 0 0 0 0 0;
 29 1 0 0 0 0 1 1.0505 -0.51 230 1 1.06 0.94 0 0 0 0 0 0 0;
 30 2 0 0 0 0 1 1.0475 0 230 1 1.06 0.94 0 0 0 0 0 0 0;
 31 3 0 0 0 0 1 0.982 0 230 1 1.06 0.94 0 0 0 0 0 0 0;
 32 2 0 0 0 0 1 0.9831 1.63 230 1 1.06 0.94 0 0 0 0 0 0 0;
 33 2 0 0 0 0 1 0.9972 2.18 230 1 1.06 0.94 0 0 0 0 0 0 0;
 34 2 0 0 0 0 1 1.0123 0.74 230 1 1.06 0.94 0 0 0 0 0 0 0;
 35 2 0 0 0 0 1 1.0493 4.14 230 1 1.06 0.94 0 0 0 0 0 0 0;
 36 2 0 0 0 0 1 1.0635 6.83 230 1 1.06 0.94 0 0 0 0 0 0 0;
 37 2 0 0 0 0 1 1.0278 1.27 230 1 1.06 0.94 0 0 0 0 0 0 0;
 38 2 0 0 0 0 1 1.0265 6.55 230 1 1.06 0.94 0 0 0 0 0 0 0;
 39 2 0 0 0 0 1 1.03 -10.96 230 1 1.06 0.94 0 0 0 0 0 0 0;
];

ps.branch = [...
%from to R X B rateA rateB rateC tap shift status Pf Qf Pt Qt mu_f mu_t Imag_f Imag_t switchable prob_fail type id 
 1 2 0.0035 0.0411 0.6987 600 600 600 1 0 1 0 0 0 0 0 0 0 0 0 0 0 1;
 1 39 0.001 0.025 0.75 1000 1000 1000 1 0 1 0 0 0 0 0 0 0 0 0 0 0 2;
 2 3 0.0013 0.0151 0.2572 500 500 500 1 0 1 0 0 0 0 0 0 0 0 0 0 0 3;
 2 25 0.007 0.0086 0.146 500 500 500 1 0 1 0 0 0 0 0 0 0 0 0 0 0 4;
 3 4 0.0013 0.0213 0.2214 500 500 500 1 0 1 0 0 0 0 0 0 0 0 0 0 0 5;
 3 18 0.0011 0.0133 0.2138 500 500 500 1 0 1 0 0 0 0 0 0 0 0 0 0 0 6;
 4 5 0.0008 0.0128 0.1342 600 600 600 1 0 1 0 0 0 0 0 0 0 0 0 0 0 7;
 4 14 0.0008 0.0129 0.1382 500 500 500 1 0 1 0 0 0 0 0 0 0 0 0 0 0 8;
 5 6 0.0002 0.0026 0.0434 1200 1200 1200 1 0 1 0 0 0 0 0 0 0 0 0 0 0 9;
 5 8 0.0008 0.0112 0.1476 900 900 900 1 0 1 0 0 0 0 0 0 0 0 0 0 0 10;
 6 7 0.0006 0.0092 0.113 900 900 900 1 0 1 0 0 0 0 0 0 0 0 0 0 0 11;
 6 11 0.0007 0.0082 0.1389 480 480 480 1 0 1 0 0 0 0 0 0 0 0 0 0 0 12;
 7 8 0.0004 0.0046 0.078 900 900 900 1 0 1 0 0 0 0 0 0 0 0 0 0 0 13;
 8 9 0.0023 0.0363 0.3804 900 900 900 1 0 1 0 0 0 0 0 0 0 0 0 0 0 14;
 9 39 0.001 0.025 1.2 900 900 900 1 0 1 0 0 0 0 0 0 0 0 0 0 0 15;
 10 11 0.0004 0.0043 0.0729 600 600 600 1 0 1 0 0 0 0 0 0 0 0 0 0 0 16;
 10 13 0.0004 0.0043 0.0729 600 600 600 1 0 1 0 0 0 0 0 0 0 0 0 0 0 17;
 13 14 0.0009 0.0101 0.1723 600 600 600 1 0 1 0 0 0 0 0 0 0 0 0 0 0 18;
 14 15 0.0018 0.0217 0.366 600 600 600 1 0 1 0 0 0 0 0 0 0 0 0 0 0 19;
 15 16 0.0009 0.0094 0.171 600 600 600 1 0 1 0 0 0 0 0 0 0 0 0 0 0 20;
 16 17 0.0007 0.0089 0.1342 600 600 600 1 0 1 0 0 0 0 0 0 0 0 0 0 0 21;
 16 19 0.0016 0.0195 0.304 600 600 2500 1 0 1 0 0 0 0 0 0 0 0 0 0 0 22;
 16 21 0.0008 0.0135 0.2548 600 600 600 1 0 1 0 0 0 0 0 0 0 0 0 0 0 23;
 16 24 0.0003 0.0059 0.068 600 600 600 1 0 1 0 0 0 0 0 0 0 0 0 0 0 24;
 17 18 0.0007 0.0082 0.1319 600 600 600 1 0 1 0 0 0 0 0 0 0 0 0 0 0 25;
 17 27 0.0013 0.0173 0.3216 600 600 600 1 0 1 0 0 0 0 0 0 0 0 0 0 0 26;
 21 22 0.0008 0.014 0.2565 900 900 900 1 0 1 0 0 0 0 0 0 0 0 0 0 0 27;
 22 23 0.0006 0.0096 0.1846 600 600 600 1 0 1 0 0 0 0 0 0 0 0 0 0 0 28;
 23 24 0.0022 0.035 0.361 600 600 600 1 0 1 0 0 0 0 0 0 0 0 0 0 0 29;
 25 26 0.0032 0.0323 0.513 600 600 600 1 0 1 0 0 0 0 0 0 0 0 0 0 0 30;
 26 27 0.0014 0.0147 0.2396 600 600 600 1 0 1 0 0 0 0 0 0 0 0 0 0 0 31;
 26 28 0.0043 0.0474 0.7802 600 600 600 1 0 1 0 0 0 0 0 0 0 0 0 0 0 32;
 26 29 0.0057 0.0625 1.029 600 600 600 1 0 1 0 0 0 0 0 0 0 0 0 0 0 33;
 28 29 0.0014 0.0151 0.249 600 600 600 1 0 1 0 0 0 0 0 0 0 0 0 0 0 34;
 12 11 0.0016 0.0435 0 500 500 500 1 0 1 0 0 0 0 0 0 0 0 0 0 0 35;
 12 13 0.0016 0.0435 0 500 500 500 1 0 1 0 0 0 0 0 0 0 0 0 0 0 36;
 6 31 0 0.025 0 1800 1800 1800 1 0 1 0 0 0 0 0 0 0 0 0 0 0 37;
 10 32 0 0.02 0 900 900 2500 1 0 1 0 0 0 0 0 0 0 0 0 0 0 38;
 19 33 0.0007 0.0142 0 900 900 2500 1 0 1 0 0 0 0 0 0 0 0 0 0 0 39;
 20 34 0.0009 0.018 0 900 900 2500 1 0 1 0 0 0 0 0 0 0 0 0 0 0 40;
 22 35 0 0.0143 0 900 900 2500 1 0 1 0 0 0 0 0 0 0 0 0 0 0 41;
 23 36 0.0005 0.0272 0 900 900 2500 1 0 1 0 0 0 0 0 0 0 0 0 0 0 42;
 25 37 0.0006 0.0232 0 900 900 2500 1 0 1 0 0 0 0 0 0 0 0 0 0 0 43;
 2 30 0 0.0181 0 900 900 2500 1 0 1 0 0 0 0 0 0 0 0 0 0 0 44;
 29 38 0.0008 0.0156 0 1200 1200 2500 1 0 1 0 0 0 0 0 0 0 0 0 0 0 45;
 19 20 0.0007 0.0138 0 900 900 2500 1 0 1 0 0 0 0 0 0 0 0 0 0 0 46;
];

ps.gen = [...
%bus Pg Qg Qmax Qmin Vsp mBase status Pmax Pmin mu_Px mu_Pn mu_Qx mu_Qn type cost part_fact RRU RRD id 
 39 1000 68.5 9999 -9999 1.03 100 1 1100 0 0 0 0 0 2 0.3 0 0 0 1;
 31 572.9 170.3 9999 -9999 0.982 100 1 1145.55 0 0 0 0 0 3 0.3 0 0 0 2;
 32 650 175.9 9999 -9999 0.9831 100 1 750 0 0 0 0 0 2 0.3 0 0 0 3;
 33 632 103.3 9999 -9999 0.9972 100 1 732 0 0 0 0 0 2 0.3 0 0 0 4;
 34 508 164.4 9999 -9999 1.0123 100 1 608 0 0 0 0 0 2 0.3 0 0 0 5;
 35 650 204.8 9999 -9999 1.0493 100 1 750 0 0 0 0 0 2 0.3 0 0 0 6;
 36 560 96.9 9999 -9999 1.0635 100 1 660 0 0 0 0 0 2 0.3 0 0 0 7;
 37 540 -4.4 9999 -9999 1.0278 100 1 640 0 0 0 0 0 2 0.3 0 0 0 8;
 38 830 19.4 9999 -9999 1.0265 100 1 930 0 0 0 0 0 2 0.3 0 0 0 9;
 30 250 103.3 9999 -9999 1.0475 100 1 350 0 0 0 0 0 2 0.3 0 0 0 10;
];

ps.mac = [...
%bus r Xd Xdp Xdpp Xq Xqp Xqpp D M Ea Eap Pm delta_m omega Td0 Td0p 
 39 0 0.02 0.006 0 0.019 0.008 0 500 1000 1.2 0 0 0 0 4 4;
 31 0 0.295 0.0697 0 0.282 0.17 0 30.3 60.6 1.2 0 0 0 0 4 4;
 32 0 0.2495 0.0531 0 0.237 0.0876 0 35.8 71.6 1.2 0 0 0 0 4 4;
 33 0 0.262 0.0436 0 0.258 0.166 0 28.6 57.2 1.2 0 0 0 0 4 4;
 34 0 0.67 0.132 0 0.62 0.166 0 26 52 1.2 0 0 0 0 4 4;
 35 0 0.254 0.05 0 0.241 0.0814 0 34.8 69.6 1.2 0 0 0 0 4 4;
 36 0 0.295 0.049 0 0.292 0.186 0 26.4 52.8 1.2 0 0 0 0 4 4;
 37 0 0.29 0.057 0 0.28 0.0911 0 24.3 48.6 1.2 0 0 0 0 4 4;
 38 0 0.2106 0.057 0 0.205 0.0587 0 34.5 69 1.2 0 0 0 0 4 4;
 30 0 0.1 0.031 0 0.069 0.008 0 42 84 1.2 0 0 0 0 4 4;
];

ps.shunt = [...
%bus P Q frac_S frac_Z status type value 
 3 322 2.4 0 0 1 1 1000 1 0.08;
 4 500 184 0 0 1 1 1000 1 0.08;
 7 233.8 84 0 0 1 1 1000 1 0.08;
 8 522 176.6 0 0 1 1 1000 1 0.08;
 12 8.5 88 0 0 1 1 1000 1 0.08;
 15 320 153 0 0 1 1 1000 1 0.08;
 16 329.4 32.3 0 0 1 1 1000 1 0.08;
 18 158 30 0 0 1 1 1000 1 0.08;
 20 680 103 0 0 1 1 1000 1 0.08;
 21 274 115 0 0 1 1 1000 1 0.08;
 23 247.5 84.6 0 0 1 1 1000 1 0.08;
 24 308.6 -92.2 0 0 1 1 1000 1 0.08;
 25 224 47.2 0 0 1 1 1000 1 0.08;
 26 139 17 0 0 1 1 1000 1 0.08;
 27 281 75.5 0 0 1 1 1000 1 0.08;
 28 206 27.6 0 0 1 1 1000 1 0.08;
 29 283.5 26.9 0 0 1 1 1000 1 0.08;
 31 9.2 4.6 0 0 1 1 1000 1 0.08;
 39 1104 250 0 0 1 1 1000 1 0.08;
];

% add a small perturbation to P of ps.shunt
% i.e. standard normal random number
% to resemble small changes in load
ps.shunt(:, 2) = ps.shunt(:, 2) + randn();

ps.exc = [...
%gen type Ka Ta Tb Ke Te Urmax Urmin Vref Efd E1 
 39 1 0 1 10 100 0.1 5 -5;
 31 1 0 1 10 100 0.1 5 -5;
 32 1 0 1 10 100 0.1 5 -5;
 33 1 0 1 10 100 0.1 5 -5;
 34 1 0 1 10 100 0.1 5 -5;
 35 1 0 1 10 100 0.1 5 -5;
 36 1 0 1 10 100 0.1 5 -5;
 37 1 0 1 10 100 0.1 5 -5;
 38 1 0 1 10 100 0.1 5 -5;
 30 1 0 1 10 100 0.1 5 -5;
];

ps.gov = [...
%gen type R Tt LCmax LCmin Pmax Pmin Pref Ti P3
 39 1 0.05 2 100 -100 11 0 0 4 0;
 31 1 0.05 2 100 -100 11.4555 0  0 4 0;
 32 1 0.05 2 100 -100 7.5 0 0 4 0;
 33 1 0.05 2 100 -100 7.32 0 0 4 0;
 34 1 0.05 2 100 -100 6.08 0 0 4 0;
 35 1 0.05 2 100 -100 7.5 0 0 4 0;
 36 1 0.05 2 100 -100 6.6 0 0 4 0;
 37 1 0.05 2 100 -100 6.4 0 0 4 0;
 38 1 0.05 2 100 -100 9.3 0 0 4 0;
 30 1 0.05 2 100 -100 3.5 0 0 4 0;
];

ps.areas = [...
 1 1;
];

ps.gencost = [...
 2 0 0 3 0.01 0.3 0.2;
 2 0 0 3 0.01 0.3 0.2;
 2 0 0 3 0.01 0.3 0.2;
 2 0 0 3 0.01 0.3 0.2;
 2 0 0 3 0.01 0.3 0.2;
 2 0 0 3 0.01 0.3 0.2;
 2 0 0 3 0.01 0.3 0.2;
 2 0 0 3 0.01 0.3 0.2;
 2 0 0 3 0.006 0.3 0.2;
 2 0 0 3 0.006 0.3 0.2;
];

